Results/stes_lec/powerflow/line_summaries.csv
,active_line_losses_mw,reactive_line_losses_mvar,apparent_line_losses_mva
0,0.05150789159001498,-0.4115311835814983,0.4758767318822238
1,0.04368983710007328,-0.4179341885546057,0.47013583820095567
2,0.042839272936053704,-0.41866139229431815,0.4694970845893402
3,0.04135550801883451,-0.4199530588190272,0.4685095059713813
4,0.04015326404984459,-0.4209928040887919,0.4677580317691636
5,0.038609324124873355,-0.4222737491014024,0.4667242837534467
6,0.039817818517323425,-0.4212545473063713,0.46762307973840017
7,0.043758006297560284,-0.41802218459040574,0.4704975084709068
8,0.043900035467997006,-0.41793548294843574,0.47062352482850833
9,0.04586885958547282,-0.41628916519771025,0.4720801028724612
10,0.0543121220298403,-0.4093985792461051,0.4782280539801205
11,0.056791992769694905,-0.40732302814156895,0.4799667313108652
12,0.06171860705594344,-0.40337060954978365,0.48368746382095174
13,0.058665454669568476,-0.4057635175146403,0.4813214805867902
14,0.06063573738306202,-0.40414210610277257,0.4826686048839877
15,0.06496005059988172,-0.4007159303531658,0.48603279964209267
16,0.07035732156524713,-0.3964614570161747,0.4904925145423286
17,0.07494193133476268,-0.39285591832954037,0.4940809234569423
18,0.06827139729416869,-0.39811186707672586,0.4886332325389093
19,0.0700648405387601,-0.3966566086415801,0.490053618643067
20,0.07264485708498981,-0.39462216561242014,0.49208447530504884
21,0.06746055911013668,-0.3987865887573185,0.48820533490312523
22,0.06007801416811706,-0.4046605286541986,0.4824114411728747
23,0.051547206114088015,-0.4115840506002938,0.47611240182091796
24,0.046305985349565565,-0.41587424886518226,0.47236846067670224
25,0.04269353626754349,-0.41882695956761157,0.4697165639358156
26,0.037825423147528264,-0.42291657842453356,0.4663702630743569
27,0.037763018976587584,-0.4229340371082125,0.4662113523460292
28,0.041544926978613055,-0.41977920885277215,0.468992631917266
29,0.04357046739804541,-0.41812894319330796,0.47033371783169126
30,0.05380386361367734,-0.4097085062811702,0.4777067100715612
31,0.06388977735836708,-0.4015620119087516,0.48526400136648046
32,0.0626822470356455,-0.40251756881022677,0.4842688179915145
33,0.06949692544282635,-0.39716062187313667,0.48981007016549855
34,0.06749610901952499,-0.39874102694667424,0.4880348597023114
35,0.06794664330865474,-0.39840348689184385,0.48838601558402545
36,0.06893894694140353,-0.39765347051785416,0.4892891286441672
37,0.07063751494500668,-0.39628632562734406,0.49041232343911023
38,0.06970170480207533,-0.397049168072983,0.48987710659288736
39,0.07239150143074645,-0.394819711744224,0.4917085506407838
40,0.08298386238880023,-0.3863196829935727,0.4999273639137115
41,0.08483830451701359,-0.38482603185835856,0.501180682782024
42,0.08136969392645299,-0.38764966747651386,0.4985065991338774
43,0.08123739791681459,-0.38765146447419646,0.4980545457484011
44,0.08825321745277727,-0.38221286434848956,0.5039786780676966
45,0.08153096840486881,-0.3874315950522678,0.49837167513106395
46,0.07221810784235755,-0.3947599892052843,0.49099670639080306
47,0.0625652312344048,-0.4024959150539205,0.48373654931687177
48,0.057323983271744,-0.4067626185440093,0.479989948581737
49,0.05065540286390298,-0.4121679689798479,0.47499458307015474
50,0.05056691467264754,-0.41226927514186335,0.47492342099654666
51,0.04819775047456986,-0.41421267029210296,0.4732560348555304
52,0.049078494615990426,-0.41347410608406315,0.4739231922751794
53,0.050824321092733535,-0.4120647917066727,0.4751193355434453
54,0.0628087846037289,-0.40237885902872367,0.48419804575755465
55,0.07781660841313842,-0.3904339271103045,0.49596490698777296
56,0.07549684475459305,-0.39234781756141324,0.4944385325223953
57,0.07211310081831675,-0.39502438997168554,0.49186162663801825
58,0.06844363735735606,-0.39790711224544023,0.4887760145627196
59,0.06633371106448459,-0.39948634838102326,0.4870099722367066
60,0.06558052621262084,-0.400169608413031,0.4866856815981728
61,0.06364475647563589,-0.4016718951218016,0.484905787087964
62,0.06628801006160993,-0.39957584950965963,0.4868365301078523
63,0.07394249518588983,-0.3935381851929795,0.4929014285081247
64,0.08083607073446769,-0.38798807247177375,0.49802069626671697
65,0.08646421089709731,-0.38357715592834235,0.5025090338516205
66,0.08360730754430919,-0.3859552297548653,0.5003225138263445
67,0.08126977114453057,-0.38776689111248186,0.4984933577988013
68,0.08181913544698385,-0.3873113299124613,0.49892644898252936
69,0.07789728578574942,-0.3904153017692166,0.4957756306285303
70,0.06860621214875211,-0.39779892151765067,0.4886809053497183
71,0.0611547493155698,-0.4037297574896313,0.4829239607148588
72,0.05491283037568244,-0.4087166604730606,0.4781353393974624
73,0.04794809427643096,-0.4143999392084945,0.47303406732941583
74,0.04764459095086695,-0.4146007672912571,0.4727528095228548
75,0.044308052929414615,-0.41734437168051297,0.47031957517009904
76,0.04543874051513138,-0.4164145089026858,0.4710400378885121
77,0.050260695871039485,-0.41248646495068925,0.4746186559539742
78,0.06206669735438604,-0.4030426819748069,0.4836356297904605
79,0.07779072952276214,-0.3905219822017406,0.495958214754984
80,0.07585300951735544,-0.3919729960327618,0.4942752227823064
81,0.07385369892391118,-0.39360212377761,0.49315448521193994
82,0.07514696400511593,-0.3926016100767151,0.49426379582789126
83,0.06831357738967812,-0.39802301699919257,0.48878982063184095
84,0.0668549820129134,-0.3991260910412394,0.48740728237705117
85,0.06723088591558127,-0.39885211946989635,0.48775996938454297
86,0.06999326588508338,-0.3966703008119023,0.48994669625648624
87,0.07846953454689412,-0.389999516138254,0.49667948085171937
88,0.08489305746063763,-0.38484941970063163,0.5014901408900241
89,0.0945286421635561,-0.377435297654562,0.5095519446682737
90,0.08692369671819003,-0.38331708829743766,0.5030765766288019
91,0.07905657311269586,-0.3893929864113247,0.4963063289642026
92,0.08103271169051278,-0.38785761513503997,0.4979025144704626
93,0.07630779394246032,-0.3915981768975665,0.4941873709722708
94,0.07149899257548617,-0.3954821407493644,0.49050742885760185
95,0.06148003850301237,-0.4034809392286039,0.4828931659552876
96,0.05266861799389043,-0.4105876927433264,0.47644702766734714
97,0.04868608361545268,-0.4138171316850883,0.4736401325848303
98,0.04601758956927122,-0.4160460591717144,0.471622071902208
99,0.04393231213645439,-0.4177677048409558,0.47014916820125374
100,0.044316350335860344,-0.41742400834651117,0.4703974586594889
101,0.04990538636527441,-0.4128760257253125,0.4745394113932167
102,0.06078028177759108,-0.40407085448091756,0.4825959562311984
103,0.07311328810045051,-0.39413464261611963,0.49201552182946023
104,0.07520270416823864,-0.3925218023579197,0.49383441042687026
105,0.07185661244167944,-0.3952124715433663,0.4914507543493575
106,0.07417379195529432,-0.3933460794448893,0.4932898707667682
107,0.07466132545185859,-0.39292623410621863,0.49354697981606593
108,0.07158730331035021,-0.3953531777147796,0.490948140159267
109,0.07300527784700658,-0.39424059985792725,0.49220536597727477
110,0.0787035239167404,-0.38967762776206155,0.4966667238791153
111,0.08001232120865918,-0.3886102606927805,0.49754872871026073
112,0.08896971244913064,-0.38162018037471795,0.5047311632468777
113,0.08854737930134307,-0.38191067361191255,0.5041485292930432
114,0.08345305411877764,-0.3858442670305986,0.4997572195970887
115,0.08325855517908409,-0.38590559192849894,0.4993786993256745
116,0.07976484708566084,-0.38874050020388856,0.496680291815364
117,0.07363947522627662,-0.393642067742258,0.49208375162287127
118,0.07137688661083728,-0.3955264906718321,0.4906097242850841
119,0.06800940622085044,-0.39820087768218254,0.48813551244027836
120,0.054016096032663795,-0.4093671518414356,0.4772645426526855
121,0.05262155535108748,-0.4106250508084993,0.47651046845582423
122,0.050971430599519696,-0.4118866909070335,0.4752233163626365
123,0.05011264755077288,-0.41262098163462363,0.47466894610012905
124,0.04946429097272478,-0.4131590758896029,0.4741232085856854
125,0.0522561717722616,-0.41091659308551703,0.4762380295751732
126,0.05722297053618301,-0.4068777038254884,0.479949711828989
127,0.06120712095337763,-0.40371797640152246,0.4829121572118476
128,0.06412235307075517,-0.4013339308830258,0.48505117533924463
129,0.06955462448861877,-0.39699355303709083,0.4892404639033848
130,0.07948555638124648,-0.38911872885370813,0.49716243142037103
131,0.08253225801378132,-0.3865618814627215,0.49914035898074344
132,0.08877624103797892,-0.38171341076511356,0.5043298777602222
133,0.0844393434839647,-0.3851333704571457,0.5008127765869762
134,0.07592356269176223,-0.3917744136717415,0.49372447384758267
135,0.08529785414906024,-0.3845024151565153,0.5016367930958517
136,0.09187786699596884,-0.3792998136062866,0.5068542052401948
137,0.09401859519153925,-0.3776142550914773,0.5084206844607772
138,0.09194775975146573,-0.3791273411288624,0.5061987324114731
139,0.08940103941771593,-0.381079492413622,0.5042275032029307
140,0.08679339661045639,-0.38328966776619583,0.5024969749939074
141,0.08445407758402235,-0.38505110612289023,0.5004652450137318
142,0.0805093006070159,-0.38816582675281347,0.4974587340564295
143,0.0754669043429574,-0.39218498507626326,0.49358025309281855
144,0.07179820615347342,-0.3951175226926928,0.49082520842674493
145,0.06762364510441493,-0.39845608567056906,0.4876481539717793
146,0.06836053508759235,-0.3979277065907646,0.4884711230560719
147,0.0627312548279777,-0.40233492403303034,0.4838614132221011
148,0.06478827569915929,-0.4007022865410341,0.4854599560651598
149,0.06803221478031107,-0.39817089460275923,0.48816468508081684
150,0.07007422068496708,-0.39648293533348156,0.48954899418239695
151,0.07441715046800837,-0.39303193352544796,0.4929289367452689
152,0.08046004079152609,-0.38829283177319024,0.49797724197682486
153,0.0873819973521607,-0.38280677872035296,0.5032350589467813
154,0.09657241445858715,-0.3756330634496517,0.510696341183243
155,0.09427801701245048,-0.3773092694504646,0.5085681167149981
156,0.09663787683960127,-0.37552633700137383,0.510721503068477
157,0.10250220835119517,-0.3710359934273876,0.5157256493385372
158,0.10261733331660333,-0.3709784484401558,0.5158754038502563
159,0.1007188254546282,-0.37239997452799145,0.5140881053835733
160,0.09808566422454716,-0.37435154365144746,0.5116039165346168
161,0.10163146093204935,-0.371672843175866,0.5146953784204104
162,0.09935999029779324,-0.3732948202698058,0.512368370232469
163,0.09942182850224664,-0.37337369802895853,0.5125979533959267
164,0.10191247816234242,-0.3715701040805057,0.515194658440563
165,0.09039189029857986,-0.3805743053810805,0.5058397530319702
166,0.07692440111382404,-0.39108680670381213,0.49480958392517227
167,0.06745050141797793,-0.3985945856464746,0.4874267020131805
168,0.06095337907936656,-0.40390368580547026,0.4828728708501536
169,0.055876604668565824,-0.40803293015621395,0.47909345563019523
170,0.05439190571491127,-0.4092344619906191,0.4780654544630864
171,0.054209777288690045,-0.40934849271960494,0.47784642717434683
172,0.053157466142970705,-0.4101369536625258,0.4768012298041754
173,0.056605855336391564,-0.407436763646297,0.4796245297303182
174,0.06911428744375368,-0.39743163029097656,0.489310796962994
175,0.08415686743078796,-0.3855112289706032,0.5011656972037487
176,0.08546090220437581,-0.38443442569118347,0.5023595568236081
177,0.07832055141297903,-0.3900981996330915,0.4966688864688906
178,0.0798428092894043,-0.38897579654606945,0.49795244613393225
179,0.07097879551065174,-0.39588126154024483,0.4905212575789259
180,0.06906041042590283,-0.39736995177735135,0.48910971001858006
181,0.0659281221839278,-0.39987760881925466,0.4868402027185223
182,0.06702071158647202,-0.3989441214384404,0.487487430485974
183,0.07383050446973075,-0.39343130978644797,0.4925290710886015
184,0.09061602764532276,-0.3802399906739443,0.5060203080021337
185,0.09525432806199488,-0.37663908932058404,0.5097274579435724
186,0.08762868388288457,-0.3824518415802659,0.5028267670669545
187,0.09580475136246669,-0.3760853759025365,0.5092964104500589
188,0.09355851677814721,-0.37789882988153756,0.5077270764996371
189,0.09508245546354047,-0.3766857479085952,0.508975232656892
190,0.0869104258555403,-0.38316464022178665,0.5026363996131397
191,0.07573270861974518,-0.39204690893479166,0.49393609366906294
192,0.06477668321253471,-0.4007841859424936,0.4856095246512307
193,0.06608007882567496,-0.399735059509159,0.48684782669013504
194,0.06482631655026402,-0.4007847424240027,0.4859413511395969
195,0.058711842911908965,-0.405626363710172,0.4809567978721169
196,0.05932942366655057,-0.4051936102509193,0.48154690855279414
197,0.06502831844093984,-0.4005894846628215,0.485894834582386
198,0.0791213493249132,-0.38935943119512445,0.4968684692516382
199,0.092419857267258,-0.378949086069973,0.5077240349006904
...
